$(OBJECTS_DIR)/horizontalAxisWindTurbinesALMOpenFAST.o: horizontalAxisWindTurbinesALMOpenFAST/horizontalAxisWindTurbinesALMOpenFAST.dep
horizontalAxisWindTurbinesALMOpenFAST/horizontalAxisWindTurbinesALMOpenFAST.dep: horizontalAxisWindTurbinesALMOpenFAST/horizontalAxisWindTurbinesALMOpenFAST.C
horizontalAxisWindTurbinesALMOpenFAST/horizontalAxisWindTurbinesALMOpenFAST.dep: horizontalAxisWindTurbinesALMOpenFAST/horizontalAxisWindTurbinesALMOpenFAST.H
horizontalAxisWindTurbinesALMOpenFAST/horizontalAxisWindTurbinesALMOpenFAST.dep: $(WM_PROJECT_DIR)/src/OpenFOAM/lnInclude/HashPtrTable.H
horizontalAxisWindTurbinesALMOpenFAST/horizontalAxisWindTurbinesALMOpenFAST.dep: $(WM_PROJECT_DIR)/src/OpenFOAM/lnInclude/HashTable.H
horizontalAxisWindTurbinesALMOpenFAST/horizontalAxisWindTurbinesALMOpenFAST.dep: $(WM_PROJECT_DIR)/src/OpenFOAM/lnInclude/label.H
horizontalAxisWindTurbinesALMOpenFAST/horizontalAxisWindTurbinesALMOpenFAST.dep: $(WM_PROJECT_DIR)/src/OpenFOAM/lnInclude/pTraits.H
horizontalAxisWindTurbinesALMOpenFAST/horizontalAxisWindTurbinesALMOpenFAST.dep: $(WM_PROJECT_DIR)/src/OpenFOAM/lnInclude/direction.H
horizontalAxisWindTurbinesALMOpenFAST/horizontalAxisWindTurbinesALMOpenFAST.dep: $(WM_PROJECT_DIR)/src/OpenFOAM/lnInclude/char.H
horizontalAxisWindTurbinesALMOpenFAST/horizontalAxisWindTurbinesALMOpenFAST.dep: $(WM_PROJECT_DIR)/src/OpenFOAM/lnInclude/int.H
horizontalAxisWindTurbinesALMOpenFAST/horizontalAxisWindTurbinesALMOpenFAST.dep: $(WM_PROJECT_DIR)/src/OpenFOAM/lnInclude/word.H
horizontalAxisWindTurbinesALMOpenFAST/horizontalAxisWindTurbinesALMOpenFAST.dep: $(WM_PROJECT_DIR)/src/OpenFOAM/lnInclude/string.H
horizontalAxisWindTurbinesALMOpenFAST/horizontalAxisWindTurbinesALMOpenFAST.dep: $(WM_PROJECT_DIR)/src/OpenFOAM/lnInclude/Hasher.H
horizontalAxisWindTurbinesALMOpenFAST/horizontalAxisWindTurbinesALMOpenFAST.dep: $(WM_PROJECT_DIR)/src/OpenFOAM/lnInclude/stringI.H
horizontalAxisWindTurbinesALMOpenFAST/horizontalAxisWindTurbinesALMOpenFAST.dep: $(WM_PROJECT_DIR)/src/OpenFOAM/lnInclude/wordI.H
horizontalAxisWindTurbinesALMOpenFAST/horizontalAxisWindTurbinesALMOpenFAST.dep: $(WM_PROJECT_DIR)/src/OpenFOAM/lnInclude/long.H
horizontalAxisWindTurbinesALMOpenFAST/horizontalAxisWindTurbinesALMOpenFAST.dep: $(WM_PROJECT_DIR)/src/OpenFOAM/lnInclude/longLong.H
horizontalAxisWindTurbinesALMOpenFAST/horizontalAxisWindTurbinesALMOpenFAST.dep: $(WM_PROJECT_DIR)/src/OpenFOAM/lnInclude/uLabel.H
horizontalAxisWindTurbinesALMOpenFAST/horizontalAxisWindTurbinesALMOpenFAST.dep: $(WM_PROJECT_DIR)/src/OpenFOAM/lnInclude/uint.H
horizontalAxisWindTurbinesALMOpenFAST/horizontalAxisWindTurbinesALMOpenFAST.dep: $(WM_PROJECT_DIR)/src/OpenFOAM/lnInclude/ulong.H
horizontalAxisWindTurbinesALMOpenFAST/horizontalAxisWindTurbinesALMOpenFAST.dep: $(WM_PROJECT_DIR)/src/OpenFOAM/lnInclude/Xfer.H
horizontalAxisWindTurbinesALMOpenFAST/horizontalAxisWindTurbinesALMOpenFAST.dep: $(WM_PROJECT_DIR)/src/OpenFOAM/lnInclude/XferI.H
horizontalAxisWindTurbinesALMOpenFAST/horizontalAxisWindTurbinesALMOpenFAST.dep: $(WM_PROJECT_DIR)/src/OpenFOAM/lnInclude/className.H
horizontalAxisWindTurbinesALMOpenFAST/horizontalAxisWindTurbinesALMOpenFAST.dep: $(WM_PROJECT_DIR)/src/OpenFOAM/lnInclude/debug.H
horizontalAxisWindTurbinesALMOpenFAST/horizontalAxisWindTurbinesALMOpenFAST.dep: $(WM_PROJECT_DIR)/src/OpenFOAM/lnInclude/debugName.H
horizontalAxisWindTurbinesALMOpenFAST/horizontalAxisWindTurbinesALMOpenFAST.dep: $(WM_PROJECT_DIR)/src/OpenFOAM/lnInclude/simpleRegIOobject.H
horizontalAxisWindTurbinesALMOpenFAST/horizontalAxisWindTurbinesALMOpenFAST.dep: $(WM_PROJECT_DIR)/src/OpenFOAM/lnInclude/HashTableI.H
horizontalAxisWindTurbinesALMOpenFAST/horizontalAxisWindTurbinesALMOpenFAST.dep: $(WM_PROJECT_DIR)/src/OpenFOAM/lnInclude/error.H
horizontalAxisWindTurbinesALMOpenFAST/horizontalAxisWindTurbinesALMOpenFAST.dep: $(WM_PROJECT_DIR)/src/OpenFOAM/lnInclude/messageStream.H
horizontalAxisWindTurbinesALMOpenFAST/horizontalAxisWindTurbinesALMOpenFAST.dep: $(WM_PROJECT_DIR)/src/OpenFOAM/lnInclude/OSstream.H
horizontalAxisWindTurbinesALMOpenFAST/horizontalAxisWindTurbinesALMOpenFAST.dep: $(WM_PROJECT_DIR)/src/OpenFOAM/lnInclude/Ostream.H
horizontalAxisWindTurbinesALMOpenFAST/horizontalAxisWindTurbinesALMOpenFAST.dep: $(WM_PROJECT_DIR)/src/OpenFOAM/lnInclude/IOstream.H
horizontalAxisWindTurbinesALMOpenFAST/horizontalAxisWindTurbinesALMOpenFAST.dep: $(WM_PROJECT_DIR)/src/OpenFOAM/lnInclude/bool.H
horizontalAxisWindTurbinesALMOpenFAST/horizontalAxisWindTurbinesALMOpenFAST.dep: $(WM_PROJECT_DIR)/src/OpenFOAM/lnInclude/scalar.H
horizontalAxisWindTurbinesALMOpenFAST/horizontalAxisWindTurbinesALMOpenFAST.dep: $(WM_PROJECT_DIR)/src/OpenFOAM/lnInclude/floatScalar.H
horizontalAxisWindTurbinesALMOpenFAST/horizontalAxisWindTurbinesALMOpenFAST.dep: $(WM_PROJECT_DIR)/src/OpenFOAM/lnInclude/doubleFloat.H
horizontalAxisWindTurbinesALMOpenFAST/horizontalAxisWindTurbinesALMOpenFAST.dep: $(WM_PROJECT_DIR)/src/OpenFOAM/lnInclude/products.H
horizontalAxisWindTurbinesALMOpenFAST/horizontalAxisWindTurbinesALMOpenFAST.dep: $(WM_PROJECT_DIR)/src/OpenFOAM/lnInclude/Scalar.H
horizontalAxisWindTurbinesALMOpenFAST/horizontalAxisWindTurbinesALMOpenFAST.dep: $(WM_PROJECT_DIR)/src/OpenFOAM/lnInclude/doubleScalar.H
horizontalAxisWindTurbinesALMOpenFAST/horizontalAxisWindTurbinesALMOpenFAST.dep: $(WM_PROJECT_DIR)/src/OpenFOAM/lnInclude/fileName.H
horizontalAxisWindTurbinesALMOpenFAST/horizontalAxisWindTurbinesALMOpenFAST.dep: $(WM_PROJECT_DIR)/src/OpenFOAM/lnInclude/fileNameI.H
horizontalAxisWindTurbinesALMOpenFAST/horizontalAxisWindTurbinesALMOpenFAST.dep: $(WM_PROJECT_DIR)/src/OpenFOAM/lnInclude/InfoProxy.H
horizontalAxisWindTurbinesALMOpenFAST/horizontalAxisWindTurbinesALMOpenFAST.dep: $(WM_PROJECT_DIR)/src/OpenFOAM/lnInclude/keyType.H
horizontalAxisWindTurbinesALMOpenFAST/horizontalAxisWindTurbinesALMOpenFAST.dep: $(WM_PROJECT_DIR)/src/OpenFOAM/lnInclude/keyTypeI.H
horizontalAxisWindTurbinesALMOpenFAST/horizontalAxisWindTurbinesALMOpenFAST.dep: $(WM_PROJECT_DIR)/src/OpenFOAM/lnInclude/OSstreamI.H
horizontalAxisWindTurbinesALMOpenFAST/horizontalAxisWindTurbinesALMOpenFAST.dep: $(WM_PROJECT_DIR)/src/OpenFOAM/lnInclude/errorManip.H
horizontalAxisWindTurbinesALMOpenFAST/horizontalAxisWindTurbinesALMOpenFAST.dep: $(WM_PROJECT_DIR)/src/OpenFOAM/lnInclude/HashTable.C
horizontalAxisWindTurbinesALMOpenFAST/horizontalAxisWindTurbinesALMOpenFAST.dep: $(WM_PROJECT_DIR)/src/OpenFOAM/lnInclude/List.H
horizontalAxisWindTurbinesALMOpenFAST/horizontalAxisWindTurbinesALMOpenFAST.dep: $(WM_PROJECT_DIR)/src/OpenFOAM/lnInclude/UList.H
horizontalAxisWindTurbinesALMOpenFAST/horizontalAxisWindTurbinesALMOpenFAST.dep: $(WM_PROJECT_DIR)/src/OpenFOAM/lnInclude/UListI.H
horizontalAxisWindTurbinesALMOpenFAST/horizontalAxisWindTurbinesALMOpenFAST.dep: $(WM_PROJECT_DIR)/src/OpenFOAM/lnInclude/Swap.H
horizontalAxisWindTurbinesALMOpenFAST/horizontalAxisWindTurbinesALMOpenFAST.dep: $(WM_PROJECT_DIR)/src/OpenFOAM/lnInclude/UList.C
horizontalAxisWindTurbinesALMOpenFAST/horizontalAxisWindTurbinesALMOpenFAST.dep: $(WM_PROJECT_DIR)/src/OpenFOAM/lnInclude/ListLoopM.H
horizontalAxisWindTurbinesALMOpenFAST/horizontalAxisWindTurbinesALMOpenFAST.dep: $(WM_PROJECT_DIR)/src/OpenFOAM/lnInclude/contiguous.H
horizontalAxisWindTurbinesALMOpenFAST/horizontalAxisWindTurbinesALMOpenFAST.dep: $(WM_PROJECT_DIR)/src/OpenFOAM/lnInclude/UListIO.C
horizontalAxisWindTurbinesALMOpenFAST/horizontalAxisWindTurbinesALMOpenFAST.dep: $(WM_PROJECT_DIR)/src/OpenFOAM/lnInclude/token.H
horizontalAxisWindTurbinesALMOpenFAST/horizontalAxisWindTurbinesALMOpenFAST.dep: $(WM_PROJECT_DIR)/src/OpenFOAM/lnInclude/refCount.H
horizontalAxisWindTurbinesALMOpenFAST/horizontalAxisWindTurbinesALMOpenFAST.dep: $(WM_PROJECT_DIR)/src/OpenFOAM/lnInclude/typeInfo.H
horizontalAxisWindTurbinesALMOpenFAST/horizontalAxisWindTurbinesALMOpenFAST.dep: $(WM_PROJECT_DIR)/src/OpenFOAM/lnInclude/runTimeSelectionTables.H
horizontalAxisWindTurbinesALMOpenFAST/horizontalAxisWindTurbinesALMOpenFAST.dep: $(WM_PROJECT_DIR)/src/OpenFOAM/lnInclude/autoPtr.H
horizontalAxisWindTurbinesALMOpenFAST/horizontalAxisWindTurbinesALMOpenFAST.dep: $(WM_PROJECT_DIR)/src/OpenFOAM/lnInclude/autoPtrI.H
horizontalAxisWindTurbinesALMOpenFAST/horizontalAxisWindTurbinesALMOpenFAST.dep: $(WM_PROJECT_DIR)/src/OpenFOAM/lnInclude/tokenI.H
horizontalAxisWindTurbinesALMOpenFAST/horizontalAxisWindTurbinesALMOpenFAST.dep: $(WM_PROJECT_DIR)/src/OpenFOAM/lnInclude/Istream.H
horizontalAxisWindTurbinesALMOpenFAST/horizontalAxisWindTurbinesALMOpenFAST.dep: $(WM_PROJECT_DIR)/src/OpenFOAM/lnInclude/SLList.H
horizontalAxisWindTurbinesALMOpenFAST/horizontalAxisWindTurbinesALMOpenFAST.dep: $(WM_PROJECT_DIR)/src/OpenFOAM/lnInclude/LList.H
horizontalAxisWindTurbinesALMOpenFAST/horizontalAxisWindTurbinesALMOpenFAST.dep: $(WM_PROJECT_DIR)/src/OpenFOAM/lnInclude/LList.C
horizontalAxisWindTurbinesALMOpenFAST/horizontalAxisWindTurbinesALMOpenFAST.dep: $(WM_PROJECT_DIR)/src/OpenFOAM/lnInclude/LListIO.C
horizontalAxisWindTurbinesALMOpenFAST/horizontalAxisWindTurbinesALMOpenFAST.dep: $(WM_PROJECT_DIR)/src/OpenFOAM/lnInclude/SLListBase.H
horizontalAxisWindTurbinesALMOpenFAST/horizontalAxisWindTurbinesALMOpenFAST.dep: $(WM_PROJECT_DIR)/src/OpenFOAM/lnInclude/SLListBaseI.H
horizontalAxisWindTurbinesALMOpenFAST/horizontalAxisWindTurbinesALMOpenFAST.dep: $(WM_PROJECT_DIR)/src/OpenFOAM/lnInclude/ListI.H
horizontalAxisWindTurbinesALMOpenFAST/horizontalAxisWindTurbinesALMOpenFAST.dep: $(WM_PROJECT_DIR)/src/OpenFOAM/lnInclude/List.C
horizontalAxisWindTurbinesALMOpenFAST/horizontalAxisWindTurbinesALMOpenFAST.dep: $(WM_PROJECT_DIR)/src/OpenFOAM/lnInclude/FixedList.H
horizontalAxisWindTurbinesALMOpenFAST/horizontalAxisWindTurbinesALMOpenFAST.dep: $(WM_PROJECT_DIR)/src/OpenFOAM/lnInclude/Hash.H
horizontalAxisWindTurbinesALMOpenFAST/horizontalAxisWindTurbinesALMOpenFAST.dep: $(WM_PROJECT_DIR)/src/OpenFOAM/lnInclude/wordRe.H
horizontalAxisWindTurbinesALMOpenFAST/horizontalAxisWindTurbinesALMOpenFAST.dep: $(WM_PROJECT_DIR)/src/OSspecific/POSIX/lnInclude/regExp.H
horizontalAxisWindTurbinesALMOpenFAST/horizontalAxisWindTurbinesALMOpenFAST.dep: $(WM_PROJECT_DIR)/src/OpenFOAM/lnInclude/wordReI.H
horizontalAxisWindTurbinesALMOpenFAST/horizontalAxisWindTurbinesALMOpenFAST.dep: $(WM_PROJECT_DIR)/src/OpenFOAM/lnInclude/StaticAssert.H
horizontalAxisWindTurbinesALMOpenFAST/horizontalAxisWindTurbinesALMOpenFAST.dep: $(WM_PROJECT_DIR)/src/OpenFOAM/lnInclude/FixedListI.H
horizontalAxisWindTurbinesALMOpenFAST/horizontalAxisWindTurbinesALMOpenFAST.dep: $(WM_PROJECT_DIR)/src/OpenFOAM/lnInclude/FixedList.C
horizontalAxisWindTurbinesALMOpenFAST/horizontalAxisWindTurbinesALMOpenFAST.dep: $(WM_PROJECT_DIR)/src/OpenFOAM/lnInclude/FixedListIO.C
horizontalAxisWindTurbinesALMOpenFAST/horizontalAxisWindTurbinesALMOpenFAST.dep: $(WM_PROJECT_DIR)/src/OpenFOAM/lnInclude/PtrList.H
horizontalAxisWindTurbinesALMOpenFAST/horizontalAxisWindTurbinesALMOpenFAST.dep: $(WM_PROJECT_DIR)/src/OpenFOAM/lnInclude/PtrListI.H
horizontalAxisWindTurbinesALMOpenFAST/horizontalAxisWindTurbinesALMOpenFAST.dep: $(WM_PROJECT_DIR)/src/OpenFOAM/lnInclude/tmp.H
horizontalAxisWindTurbinesALMOpenFAST/horizontalAxisWindTurbinesALMOpenFAST.dep: $(WM_PROJECT_DIR)/src/OpenFOAM/lnInclude/tmpI.H
horizontalAxisWindTurbinesALMOpenFAST/horizontalAxisWindTurbinesALMOpenFAST.dep: $(WM_PROJECT_DIR)/src/OpenFOAM/lnInclude/PtrList.C
horizontalAxisWindTurbinesALMOpenFAST/horizontalAxisWindTurbinesALMOpenFAST.dep: $(WM_PROJECT_DIR)/src/OpenFOAM/lnInclude/SLPtrList.H
horizontalAxisWindTurbinesALMOpenFAST/horizontalAxisWindTurbinesALMOpenFAST.dep: $(WM_PROJECT_DIR)/src/OpenFOAM/lnInclude/LPtrList.H
horizontalAxisWindTurbinesALMOpenFAST/horizontalAxisWindTurbinesALMOpenFAST.dep: $(WM_PROJECT_DIR)/src/OpenFOAM/lnInclude/LPtrList.C
horizontalAxisWindTurbinesALMOpenFAST/horizontalAxisWindTurbinesALMOpenFAST.dep: $(WM_PROJECT_DIR)/src/OpenFOAM/lnInclude/LPtrListIO.C
horizontalAxisWindTurbinesALMOpenFAST/horizontalAxisWindTurbinesALMOpenFAST.dep: $(WM_PROJECT_DIR)/src/OpenFOAM/lnInclude/INew.H
horizontalAxisWindTurbinesALMOpenFAST/horizontalAxisWindTurbinesALMOpenFAST.dep: $(WM_PROJECT_DIR)/src/OpenFOAM/lnInclude/PtrListIO.C
horizontalAxisWindTurbinesALMOpenFAST/horizontalAxisWindTurbinesALMOpenFAST.dep: $(WM_PROJECT_DIR)/src/OpenFOAM/lnInclude/IndirectList.H
horizontalAxisWindTurbinesALMOpenFAST/horizontalAxisWindTurbinesALMOpenFAST.dep: $(WM_PROJECT_DIR)/src/OpenFOAM/lnInclude/UIndirectList.H
horizontalAxisWindTurbinesALMOpenFAST/horizontalAxisWindTurbinesALMOpenFAST.dep: $(WM_PROJECT_DIR)/src/OpenFOAM/lnInclude/UIndirectListI.H
horizontalAxisWindTurbinesALMOpenFAST/horizontalAxisWindTurbinesALMOpenFAST.dep: $(WM_PROJECT_DIR)/src/OpenFOAM/lnInclude/UIndirectListIO.C
horizontalAxisWindTurbinesALMOpenFAST/horizontalAxisWindTurbinesALMOpenFAST.dep: $(WM_PROJECT_DIR)/src/OpenFOAM/lnInclude/IndirectListI.H
horizontalAxisWindTurbinesALMOpenFAST/horizontalAxisWindTurbinesALMOpenFAST.dep: $(WM_PROJECT_DIR)/src/OpenFOAM/lnInclude/BiIndirectList.H
horizontalAxisWindTurbinesALMOpenFAST/horizontalAxisWindTurbinesALMOpenFAST.dep: $(WM_PROJECT_DIR)/src/OpenFOAM/lnInclude/BiIndirectListI.H
horizontalAxisWindTurbinesALMOpenFAST/horizontalAxisWindTurbinesALMOpenFAST.dep: $(WM_PROJECT_DIR)/src/OpenFOAM/lnInclude/ListIO.C
horizontalAxisWindTurbinesALMOpenFAST/horizontalAxisWindTurbinesALMOpenFAST.dep: $(WM_PROJECT_DIR)/src/OpenFOAM/lnInclude/HashTableIO.C
horizontalAxisWindTurbinesALMOpenFAST/horizontalAxisWindTurbinesALMOpenFAST.dep: $(WM_PROJECT_DIR)/src/OpenFOAM/lnInclude/HashPtrTable.C
horizontalAxisWindTurbinesALMOpenFAST/horizontalAxisWindTurbinesALMOpenFAST.dep: $(WM_PROJECT_DIR)/src/OpenFOAM/lnInclude/HashPtrTableIO.C
horizontalAxisWindTurbinesALMOpenFAST/horizontalAxisWindTurbinesALMOpenFAST.dep: $(WM_PROJECT_DIR)/src/OpenFOAM/lnInclude/dictionary.H
horizontalAxisWindTurbinesALMOpenFAST/horizontalAxisWindTurbinesALMOpenFAST.dep: $(WM_PROJECT_DIR)/src/OpenFOAM/lnInclude/entry.H
horizontalAxisWindTurbinesALMOpenFAST/horizontalAxisWindTurbinesALMOpenFAST.dep: $(WM_PROJECT_DIR)/src/OpenFOAM/lnInclude/IDLList.H
horizontalAxisWindTurbinesALMOpenFAST/horizontalAxisWindTurbinesALMOpenFAST.dep: $(WM_PROJECT_DIR)/src/OpenFOAM/lnInclude/ILList.H
horizontalAxisWindTurbinesALMOpenFAST/horizontalAxisWindTurbinesALMOpenFAST.dep: $(WM_PROJECT_DIR)/src/OpenFOAM/lnInclude/UILList.H
horizontalAxisWindTurbinesALMOpenFAST/horizontalAxisWindTurbinesALMOpenFAST.dep: $(WM_PROJECT_DIR)/src/OpenFOAM/lnInclude/UILList.C
horizontalAxisWindTurbinesALMOpenFAST/horizontalAxisWindTurbinesALMOpenFAST.dep: $(WM_PROJECT_DIR)/src/OpenFOAM/lnInclude/UILListIO.C
horizontalAxisWindTurbinesALMOpenFAST/horizontalAxisWindTurbinesALMOpenFAST.dep: $(WM_PROJECT_DIR)/src/OpenFOAM/lnInclude/ILList.C
horizontalAxisWindTurbinesALMOpenFAST/horizontalAxisWindTurbinesALMOpenFAST.dep: $(WM_PROJECT_DIR)/src/OpenFOAM/lnInclude/ILListIO.C
horizontalAxisWindTurbinesALMOpenFAST/horizontalAxisWindTurbinesALMOpenFAST.dep: $(WM_PROJECT_DIR)/src/OpenFOAM/lnInclude/DLListBase.H
horizontalAxisWindTurbinesALMOpenFAST/horizontalAxisWindTurbinesALMOpenFAST.dep: $(WM_PROJECT_DIR)/src/OpenFOAM/lnInclude/DLListBaseI.H
horizontalAxisWindTurbinesALMOpenFAST/horizontalAxisWindTurbinesALMOpenFAST.dep: $(WM_PROJECT_DIR)/src/OpenFOAM/lnInclude/DLList.H
horizontalAxisWindTurbinesALMOpenFAST/horizontalAxisWindTurbinesALMOpenFAST.dep: $(WM_PROJECT_DIR)/src/OpenFOAM/lnInclude/ITstream.H
horizontalAxisWindTurbinesALMOpenFAST/horizontalAxisWindTurbinesALMOpenFAST.dep: $(WM_PROJECT_DIR)/src/OpenFOAM/lnInclude/tokenList.H
horizontalAxisWindTurbinesALMOpenFAST/horizontalAxisWindTurbinesALMOpenFAST.dep: $(WM_PROJECT_DIR)/src/OpenFOAM/lnInclude/wordList.H
horizontalAxisWindTurbinesALMOpenFAST/horizontalAxisWindTurbinesALMOpenFAST.dep: $(WM_PROJECT_DIR)/src/OpenFOAM/lnInclude/dictionaryTemplates.C
horizontalAxisWindTurbinesALMOpenFAST/horizontalAxisWindTurbinesALMOpenFAST.dep: $(WM_PROJECT_DIR)/src/OpenFOAM/lnInclude/primitiveEntry.H
horizontalAxisWindTurbinesALMOpenFAST/horizontalAxisWindTurbinesALMOpenFAST.dep: $(WM_PROJECT_DIR)/src/OpenFOAM/lnInclude/IStringStream.H
horizontalAxisWindTurbinesALMOpenFAST/horizontalAxisWindTurbinesALMOpenFAST.dep: $(WM_PROJECT_DIR)/src/OpenFOAM/lnInclude/ISstream.H
horizontalAxisWindTurbinesALMOpenFAST/horizontalAxisWindTurbinesALMOpenFAST.dep: $(WM_PROJECT_DIR)/src/OpenFOAM/lnInclude/ISstreamI.H
horizontalAxisWindTurbinesALMOpenFAST/horizontalAxisWindTurbinesALMOpenFAST.dep: $(WM_PROJECT_DIR)/src/OpenFOAM/lnInclude/OStringStream.H
horizontalAxisWindTurbinesALMOpenFAST/horizontalAxisWindTurbinesALMOpenFAST.dep: $(WM_PROJECT_DIR)/src/OpenFOAM/lnInclude/primitiveEntryTemplates.C
horizontalAxisWindTurbinesALMOpenFAST/horizontalAxisWindTurbinesALMOpenFAST.dep: $(WM_PROJECT_DIR)/src/OpenFOAM/lnInclude/IOdictionary.H
horizontalAxisWindTurbinesALMOpenFAST/horizontalAxisWindTurbinesALMOpenFAST.dep: $(WM_PROJECT_DIR)/src/OpenFOAM/lnInclude/regIOobject.H
horizontalAxisWindTurbinesALMOpenFAST/horizontalAxisWindTurbinesALMOpenFAST.dep: $(WM_PROJECT_DIR)/src/OpenFOAM/lnInclude/IOobject.H
horizontalAxisWindTurbinesALMOpenFAST/horizontalAxisWindTurbinesALMOpenFAST.dep: $(WM_PROJECT_DIR)/src/OpenFOAM/lnInclude/IOobjectI.H
horizontalAxisWindTurbinesALMOpenFAST/horizontalAxisWindTurbinesALMOpenFAST.dep: $(WM_PROJECT_DIR)/src/OpenFOAM/lnInclude/foamVersion.H
horizontalAxisWindTurbinesALMOpenFAST/horizontalAxisWindTurbinesALMOpenFAST.dep: $(WM_PROJECT_DIR)/src/OpenFOAM/lnInclude/OSspecific.H
horizontalAxisWindTurbinesALMOpenFAST/horizontalAxisWindTurbinesALMOpenFAST.dep: $(WM_PROJECT_DIR)/src/OpenFOAM/lnInclude/fileNameList.H
horizontalAxisWindTurbinesALMOpenFAST/horizontalAxisWindTurbinesALMOpenFAST.dep: $(WM_PROJECT_DIR)/src/OpenFOAM/lnInclude/NamedEnum.H
horizontalAxisWindTurbinesALMOpenFAST/horizontalAxisWindTurbinesALMOpenFAST.dep: $(WM_PROJECT_DIR)/src/OpenFOAM/lnInclude/stringList.H
horizontalAxisWindTurbinesALMOpenFAST/horizontalAxisWindTurbinesALMOpenFAST.dep: $(WM_PROJECT_DIR)/src/OpenFOAM/lnInclude/NamedEnum.C
horizontalAxisWindTurbinesALMOpenFAST/horizontalAxisWindTurbinesALMOpenFAST.dep: $(WM_PROJECT_DIR)/src/OpenFOAM/lnInclude/regIOobjectI.H
horizontalAxisWindTurbinesALMOpenFAST/horizontalAxisWindTurbinesALMOpenFAST.dep: $(WM_PROJECT_DIR)/src/OpenFOAM/lnInclude/IFstream.H
horizontalAxisWindTurbinesALMOpenFAST/horizontalAxisWindTurbinesALMOpenFAST.dep: $(WM_PROJECT_DIR)/src/OpenFOAM/lnInclude/OFstream.H
horizontalAxisWindTurbinesALMOpenFAST/horizontalAxisWindTurbinesALMOpenFAST.dep: $(WM_PROJECT_DIR)/src/finiteVolume/lnInclude/fvCFD.H
horizontalAxisWindTurbinesALMOpenFAST/horizontalAxisWindTurbinesALMOpenFAST.dep: $(WM_PROJECT_DIR)/src/OpenFOAM/lnInclude/parRun.H
horizontalAxisWindTurbinesALMOpenFAST/horizontalAxisWindTurbinesALMOpenFAST.dep: $(WM_PROJECT_DIR)/src/OpenFOAM/lnInclude/Pstream.H
horizontalAxisWindTurbinesALMOpenFAST/horizontalAxisWindTurbinesALMOpenFAST.dep: $(WM_PROJECT_DIR)/src/OpenFOAM/lnInclude/UPstream.H
horizontalAxisWindTurbinesALMOpenFAST/horizontalAxisWindTurbinesALMOpenFAST.dep: $(WM_PROJECT_DIR)/src/OpenFOAM/lnInclude/labelList.H
horizontalAxisWindTurbinesALMOpenFAST/horizontalAxisWindTurbinesALMOpenFAST.dep: $(WM_PROJECT_DIR)/src/OpenFOAM/lnInclude/DynamicList.H
horizontalAxisWindTurbinesALMOpenFAST/horizontalAxisWindTurbinesALMOpenFAST.dep: $(WM_PROJECT_DIR)/src/OpenFOAM/lnInclude/DynamicListI.H
horizontalAxisWindTurbinesALMOpenFAST/horizontalAxisWindTurbinesALMOpenFAST.dep: $(WM_PROJECT_DIR)/src/OpenFOAM/lnInclude/DynamicList.C
horizontalAxisWindTurbinesALMOpenFAST/horizontalAxisWindTurbinesALMOpenFAST.dep: $(WM_PROJECT_DIR)/src/OpenFOAM/lnInclude/ListOps.H
horizontalAxisWindTurbinesALMOpenFAST/horizontalAxisWindTurbinesALMOpenFAST.dep: $(WM_PROJECT_DIR)/src/OpenFOAM/lnInclude/ops.H
horizontalAxisWindTurbinesALMOpenFAST/horizontalAxisWindTurbinesALMOpenFAST.dep: $(WM_PROJECT_DIR)/src/OpenFOAM/lnInclude/ListOpsTemplates.C
horizontalAxisWindTurbinesALMOpenFAST/horizontalAxisWindTurbinesALMOpenFAST.dep: $(WM_PROJECT_DIR)/src/OpenFOAM/lnInclude/LIFOStack.H
horizontalAxisWindTurbinesALMOpenFAST/horizontalAxisWindTurbinesALMOpenFAST.dep: $(WM_PROJECT_DIR)/src/OpenFOAM/lnInclude/gatherScatter.C
horizontalAxisWindTurbinesALMOpenFAST/horizontalAxisWindTurbinesALMOpenFAST.dep: $(WM_PROJECT_DIR)/src/OpenFOAM/lnInclude/UOPstream.H
horizontalAxisWindTurbinesALMOpenFAST/horizontalAxisWindTurbinesALMOpenFAST.dep: $(WM_PROJECT_DIR)/src/OpenFOAM/lnInclude/PstreamBuffers.H
horizontalAxisWindTurbinesALMOpenFAST/horizontalAxisWindTurbinesALMOpenFAST.dep: $(WM_PROJECT_DIR)/src/OpenFOAM/lnInclude/OPstream.H
horizontalAxisWindTurbinesALMOpenFAST/horizontalAxisWindTurbinesALMOpenFAST.dep: $(WM_PROJECT_DIR)/src/OpenFOAM/lnInclude/UIPstream.H
horizontalAxisWindTurbinesALMOpenFAST/horizontalAxisWindTurbinesALMOpenFAST.dep: $(WM_PROJECT_DIR)/src/OpenFOAM/lnInclude/IPstream.H
horizontalAxisWindTurbinesALMOpenFAST/horizontalAxisWindTurbinesALMOpenFAST.dep: $(WM_PROJECT_DIR)/src/OpenFOAM/lnInclude/combineGatherScatter.C
horizontalAxisWindTurbinesALMOpenFAST/horizontalAxisWindTurbinesALMOpenFAST.dep: $(WM_PROJECT_DIR)/src/OpenFOAM/lnInclude/IOstreams.H
horizontalAxisWindTurbinesALMOpenFAST/horizontalAxisWindTurbinesALMOpenFAST.dep: $(WM_PROJECT_DIR)/src/OpenFOAM/lnInclude/prefixOSstream.H
horizontalAxisWindTurbinesALMOpenFAST/horizontalAxisWindTurbinesALMOpenFAST.dep: $(WM_PROJECT_DIR)/src/OpenFOAM/lnInclude/gatherScatterList.C
horizontalAxisWindTurbinesALMOpenFAST/horizontalAxisWindTurbinesALMOpenFAST.dep: $(WM_PROJECT_DIR)/src/OpenFOAM/lnInclude/exchange.C
horizontalAxisWindTurbinesALMOpenFAST/horizontalAxisWindTurbinesALMOpenFAST.dep: $(WM_PROJECT_DIR)/src/OpenFOAM/lnInclude/PstreamCombineReduceOps.H
horizontalAxisWindTurbinesALMOpenFAST/horizontalAxisWindTurbinesALMOpenFAST.dep: $(WM_PROJECT_DIR)/src/OpenFOAM/lnInclude/Time.H
horizontalAxisWindTurbinesALMOpenFAST/horizontalAxisWindTurbinesALMOpenFAST.dep: $(WM_PROJECT_DIR)/src/OpenFOAM/lnInclude/TimePaths.H
horizontalAxisWindTurbinesALMOpenFAST/horizontalAxisWindTurbinesALMOpenFAST.dep: $(WM_PROJECT_DIR)/src/OpenFOAM/lnInclude/objectRegistry.H
horizontalAxisWindTurbinesALMOpenFAST/horizontalAxisWindTurbinesALMOpenFAST.dep: $(WM_PROJECT_DIR)/src/OpenFOAM/lnInclude/wordReList.H
horizontalAxisWindTurbinesALMOpenFAST/horizontalAxisWindTurbinesALMOpenFAST.dep: $(WM_PROJECT_DIR)/src/OpenFOAM/lnInclude/objectRegistryTemplates.C
horizontalAxisWindTurbinesALMOpenFAST/horizontalAxisWindTurbinesALMOpenFAST.dep: $(WM_PROJECT_DIR)/src/OpenFOAM/lnInclude/stringListOps.H
horizontalAxisWindTurbinesALMOpenFAST/horizontalAxisWindTurbinesALMOpenFAST.dep: $(WM_PROJECT_DIR)/src/OpenFOAM/lnInclude/wordReListMatcher.H
horizontalAxisWindTurbinesALMOpenFAST/horizontalAxisWindTurbinesALMOpenFAST.dep: $(WM_PROJECT_DIR)/src/OpenFOAM/lnInclude/wordReListMatcherI.H
horizontalAxisWindTurbinesALMOpenFAST/horizontalAxisWindTurbinesALMOpenFAST.dep: $(WM_PROJECT_DIR)/src/OpenFOAM/lnInclude/stringListOpsTemplates.C
horizontalAxisWindTurbinesALMOpenFAST/horizontalAxisWindTurbinesALMOpenFAST.dep: $(WM_PROJECT_DIR)/src/OpenFOAM/lnInclude/FIFOStack.H
horizontalAxisWindTurbinesALMOpenFAST/horizontalAxisWindTurbinesALMOpenFAST.dep: $(WM_PROJECT_DIR)/src/OpenFOAM/lnInclude/clock.H
horizontalAxisWindTurbinesALMOpenFAST/horizontalAxisWindTurbinesALMOpenFAST.dep: $(WM_PROJECT_DIR)/src/OSspecific/POSIX/lnInclude/cpuTime.H
horizontalAxisWindTurbinesALMOpenFAST/horizontalAxisWindTurbinesALMOpenFAST.dep: $(WM_PROJECT_DIR)/src/OpenFOAM/lnInclude/TimeState.H
horizontalAxisWindTurbinesALMOpenFAST/horizontalAxisWindTurbinesALMOpenFAST.dep: $(WM_PROJECT_DIR)/src/OpenFOAM/lnInclude/dimensionedScalar.H
horizontalAxisWindTurbinesALMOpenFAST/horizontalAxisWindTurbinesALMOpenFAST.dep: $(WM_PROJECT_DIR)/src/OpenFOAM/lnInclude/dimensionedType.H
horizontalAxisWindTurbinesALMOpenFAST/horizontalAxisWindTurbinesALMOpenFAST.dep: $(WM_PROJECT_DIR)/src/OpenFOAM/lnInclude/dimensionSet.H
horizontalAxisWindTurbinesALMOpenFAST/horizontalAxisWindTurbinesALMOpenFAST.dep: $(WM_PROJECT_DIR)/src/OpenFOAM/lnInclude/dimensionedScalarFwd.H
horizontalAxisWindTurbinesALMOpenFAST/horizontalAxisWindTurbinesALMOpenFAST.dep: $(WM_PROJECT_DIR)/src/OpenFOAM/lnInclude/scalarField.H
horizontalAxisWindTurbinesALMOpenFAST/horizontalAxisWindTurbinesALMOpenFAST.dep: $(WM_PROJECT_DIR)/src/OpenFOAM/lnInclude/Field.H
horizontalAxisWindTurbinesALMOpenFAST/horizontalAxisWindTurbinesALMOpenFAST.dep: $(WM_PROJECT_DIR)/src/OpenFOAM/lnInclude/VectorSpace.H
horizontalAxisWindTurbinesALMOpenFAST/horizontalAxisWindTurbinesALMOpenFAST.dep: $(WM_PROJECT_DIR)/src/OpenFOAM/lnInclude/VectorSpaceI.H
horizontalAxisWindTurbinesALMOpenFAST/horizontalAxisWindTurbinesALMOpenFAST.dep: $(WM_PROJECT_DIR)/src/OpenFOAM/lnInclude/VectorSpaceM.H
horizontalAxisWindTurbinesALMOpenFAST/horizontalAxisWindTurbinesALMOpenFAST.dep: $(WM_PROJECT_DIR)/src/OpenFOAM/lnInclude/VectorSpace.C
horizontalAxisWindTurbinesALMOpenFAST/horizontalAxisWindTurbinesALMOpenFAST.dep: $(WM_PROJECT_DIR)/src/OpenFOAM/lnInclude/scalarList.H
horizontalAxisWindTurbinesALMOpenFAST/horizontalAxisWindTurbinesALMOpenFAST.dep: $(WM_PROJECT_DIR)/src/OpenFOAM/lnInclude/FieldFunctions.H
horizontalAxisWindTurbinesALMOpenFAST/horizontalAxisWindTurbinesALMOpenFAST.dep: $(WM_PROJECT_DIR)/src/OpenFOAM/lnInclude/FieldFunctionsM.H
horizontalAxisWindTurbinesALMOpenFAST/horizontalAxisWindTurbinesALMOpenFAST.dep: $(WM_PROJECT_DIR)/src/OpenFOAM/lnInclude/undefFieldFunctionsM.H
horizontalAxisWindTurbinesALMOpenFAST/horizontalAxisWindTurbinesALMOpenFAST.dep: $(WM_PROJECT_DIR)/src/OpenFOAM/lnInclude/Field.C
horizontalAxisWindTurbinesALMOpenFAST/horizontalAxisWindTurbinesALMOpenFAST.dep: $(WM_PROJECT_DIR)/src/OpenFOAM/lnInclude/FieldMapper.H
horizontalAxisWindTurbinesALMOpenFAST/horizontalAxisWindTurbinesALMOpenFAST.dep: $(WM_PROJECT_DIR)/src/OpenFOAM/lnInclude/FieldM.H
horizontalAxisWindTurbinesALMOpenFAST/horizontalAxisWindTurbinesALMOpenFAST.dep: $(WM_PROJECT_DIR)/src/OpenFOAM/lnInclude/FieldFunctions.C
horizontalAxisWindTurbinesALMOpenFAST/horizontalAxisWindTurbinesALMOpenFAST.dep: $(WM_PROJECT_DIR)/src/OpenFOAM/lnInclude/PstreamReduceOps.H
horizontalAxisWindTurbinesALMOpenFAST/horizontalAxisWindTurbinesALMOpenFAST.dep: $(WM_PROJECT_DIR)/src/OpenFOAM/lnInclude/vector2D.H
horizontalAxisWindTurbinesALMOpenFAST/horizontalAxisWindTurbinesALMOpenFAST.dep: $(WM_PROJECT_DIR)/src/OpenFOAM/lnInclude/Vector2D.H
horizontalAxisWindTurbinesALMOpenFAST/horizontalAxisWindTurbinesALMOpenFAST.dep: $(WM_PROJECT_DIR)/src/OpenFOAM/lnInclude/Vector2DI.H
horizontalAxisWindTurbinesALMOpenFAST/horizontalAxisWindTurbinesALMOpenFAST.dep: $(WM_PROJECT_DIR)/src/OpenFOAM/lnInclude/FieldReuseFunctions.H
horizontalAxisWindTurbinesALMOpenFAST/horizontalAxisWindTurbinesALMOpenFAST.dep: $(WM_PROJECT_DIR)/src/OpenFOAM/lnInclude/FieldFunctionsM.C
horizontalAxisWindTurbinesALMOpenFAST/horizontalAxisWindTurbinesALMOpenFAST.dep: $(WM_PROJECT_DIR)/src/OpenFOAM/lnInclude/dimensionSets.H
horizontalAxisWindTurbinesALMOpenFAST/horizontalAxisWindTurbinesALMOpenFAST.dep: $(WM_PROJECT_DIR)/src/OpenFOAM/lnInclude/scalarMatrices.H
horizontalAxisWindTurbinesALMOpenFAST/horizontalAxisWindTurbinesALMOpenFAST.dep: $(WM_PROJECT_DIR)/src/OpenFOAM/lnInclude/RectangularMatrix.H
horizontalAxisWindTurbinesALMOpenFAST/horizontalAxisWindTurbinesALMOpenFAST.dep: $(WM_PROJECT_DIR)/src/OpenFOAM/lnInclude/Matrix.H
horizontalAxisWindTurbinesALMOpenFAST/horizontalAxisWindTurbinesALMOpenFAST.dep: $(WM_PROJECT_DIR)/src/OpenFOAM/lnInclude/MatrixI.H
horizontalAxisWindTurbinesALMOpenFAST/horizontalAxisWindTurbinesALMOpenFAST.dep: $(WM_PROJECT_DIR)/src/OpenFOAM/lnInclude/Matrix.C
horizontalAxisWindTurbinesALMOpenFAST/horizontalAxisWindTurbinesALMOpenFAST.dep: $(WM_PROJECT_DIR)/src/OpenFOAM/lnInclude/MatrixIO.C
horizontalAxisWindTurbinesALMOpenFAST/horizontalAxisWindTurbinesALMOpenFAST.dep: $(WM_PROJECT_DIR)/src/OpenFOAM/lnInclude/RectangularMatrixI.H
horizontalAxisWindTurbinesALMOpenFAST/horizontalAxisWindTurbinesALMOpenFAST.dep: $(WM_PROJECT_DIR)/src/OpenFOAM/lnInclude/SquareMatrix.H
horizontalAxisWindTurbinesALMOpenFAST/horizontalAxisWindTurbinesALMOpenFAST.dep: $(WM_PROJECT_DIR)/src/OpenFOAM/lnInclude/SquareMatrixI.H
horizontalAxisWindTurbinesALMOpenFAST/horizontalAxisWindTurbinesALMOpenFAST.dep: $(WM_PROJECT_DIR)/src/OpenFOAM/lnInclude/SquareMatrix.C
horizontalAxisWindTurbinesALMOpenFAST/horizontalAxisWindTurbinesALMOpenFAST.dep: $(WM_PROJECT_DIR)/src/OpenFOAM/lnInclude/SymmetricSquareMatrix.H
horizontalAxisWindTurbinesALMOpenFAST/horizontalAxisWindTurbinesALMOpenFAST.dep: $(WM_PROJECT_DIR)/src/OpenFOAM/lnInclude/SymmetricSquareMatrixI.H
horizontalAxisWindTurbinesALMOpenFAST/horizontalAxisWindTurbinesALMOpenFAST.dep: $(WM_PROJECT_DIR)/src/OpenFOAM/lnInclude/SymmetricSquareMatrix.C
horizontalAxisWindTurbinesALMOpenFAST/horizontalAxisWindTurbinesALMOpenFAST.dep: $(WM_PROJECT_DIR)/src/OpenFOAM/lnInclude/DiagonalMatrix.H
horizontalAxisWindTurbinesALMOpenFAST/horizontalAxisWindTurbinesALMOpenFAST.dep: $(WM_PROJECT_DIR)/src/OpenFOAM/lnInclude/DiagonalMatrix.C
horizontalAxisWindTurbinesALMOpenFAST/horizontalAxisWindTurbinesALMOpenFAST.dep: $(WM_PROJECT_DIR)/src/OpenFOAM/lnInclude/scalarMatricesTemplates.C
horizontalAxisWindTurbinesALMOpenFAST/horizontalAxisWindTurbinesALMOpenFAST.dep: $(WM_PROJECT_DIR)/src/OpenFOAM/lnInclude/dimensionedType.C
horizontalAxisWindTurbinesALMOpenFAST/horizontalAxisWindTurbinesALMOpenFAST.dep: $(WM_PROJECT_DIR)/src/OpenFOAM/lnInclude/Switch.H
horizontalAxisWindTurbinesALMOpenFAST/horizontalAxisWindTurbinesALMOpenFAST.dep: $(WM_PROJECT_DIR)/src/OpenFOAM/lnInclude/instantList.H
horizontalAxisWindTurbinesALMOpenFAST/horizontalAxisWindTurbinesALMOpenFAST.dep: $(WM_PROJECT_DIR)/src/OpenFOAM/lnInclude/instant.H
horizontalAxisWindTurbinesALMOpenFAST/horizontalAxisWindTurbinesALMOpenFAST.dep: $(WM_PROJECT_DIR)/src/OpenFOAM/lnInclude/dlLibraryTable.H
horizontalAxisWindTurbinesALMOpenFAST/horizontalAxisWindTurbinesALMOpenFAST.dep: $(WM_PROJECT_DIR)/src/OpenFOAM/lnInclude/dlLibraryTableTemplates.C