/*--------------------------------*- C++ -*----------------------------------*\
| =========                 |                                                 |
| \\      /  F ield         | OpenFOAM: The Open Source CFD Toolbox           |
|  \\    /   O peration     | Version:  2.0.x                                 |
|   \\  /    A nd           | Web:      www.OpenFOAM.org                      |
|    \\/     M anipulation  |                                                 |
\*---------------------------------------------------------------------------*/

FoamFile
{
    version     2.0;
    format      ascii;
    class       dictionary;
    object      turbineProperties;
}
// * * * * * * * * * * * * * * * * * * * * * * * * * * * * * * * * * * * * * //

globalProperties
{
    outputControl       "timeStep";
//  outputControl       "runTime";
    outputInterval       1;
}

turbine0
{
    turbineType         "NREL5MWRef";
    baseLocation        (1000.0 500.0 0.0);
    numBladePoints      40;
    pointDistType       "uniform";
    pointInterpType     "linear";
//  pointInterpType     "cellCenter";
    bladeUpdateType     "oldPosition";
//  bladeUpdateType     "newPosition";
    epsilon              5.0;
    tipRootLossCorrType "none";
//  tipRootLossCorrType "Glauert";
    rotationDir         "cw";
//  rotationDir         "ccw";
    Azimuth              0.0;
    RotSpeed            9.1552;
    TorqueGen            0.0;
    Pitch                0.0;
    NacYaw              240.0;
    fluidDensity        1.23;
}

turbine1
{
    turbineType         "NREL5MWRef";
    baseLocation        (3000.0 500.0 0.0);
    numBladePoints      40;
    pointDistType       "uniform";
    pointInterpType     "linear";
//  pointInterpType     "cellCenter";
    bladeUpdateType     "oldPosition";
//  bladeUpdateType     "newPosition";
    epsilon              5.0;
    tipRootLossCorrType "none";
//  tipRootLossCorrType "Glauert";
    rotationDir         "cw";
//  rotationDir         "ccw";
    Azimuth              0.0;
    RotSpeed            9.1552;
    TorqueGen            0.0;
    Pitch                0.0;
    NacYaw              240.0;
    fluidDensity        1.23;
}
