#!/bin/bash


# Turbulence models.
cd src/TurbulenceModels
./Allwclean
cd ../../


# Actuator turbine models.
cd src/turbineModels/turbineModelsStandard
wclean
cd ../../../


# Custom boundary conditions.
cd src/boundaryConditions
wclean
cd ../../


# OpenFAST coupled turbine models.
if [ -z ${OPENFAST_DIR+x} ]
then
    echo "OPENFAST_DIR is not set. Not cleaning OpenFAST interface."
else
    if [ -d ${OPENFAST_DIR} ] 
    then
	echo "OPENFAST_DIR is set to '${OPENFAST_DIR}'. Attempting to clean OpenFAST interface."
	cd src/turbineModels/turbineModelsOpenFAST
	wclean
	cd ../../../
    else
	echo "OPENFAST_DIR is set to '${OPENFAST_DIR}'. Directory doesn't exist or I can't access it. Skipping cleaning of OpenFAST interface."
    fi	
fi

# Custom mesh Tools
cd src/meshTools
wclean
cd ../../


# ABL forcing objects
cd src/ABLForcing
wclean
cd ../../


# Custom sampling (this includes sampling on an annulus).
cd src/sampling
wclean
cd ../../


# Custom file formats (like structured VTK).
cd src/fileFormats
wclean
cd ../../


# Custom function objects (this includes planar and temporal averaging).
cd src/functionObjects/field
wclean
cd ../../../


# Custom function objects (this includes the lidar sampling).
cd src/functionObjects/utilities
wclean
cd ../../../


# Utility to set the initial fields for the ABL solver.
cd applications/utilities/setFieldsABL
wclean
cd ../../../


# The atmospheric LES solver for precursors.
cd applications/solvers/superDeliciousVanilla
wclean
cd ../../../
