/*--------------------------------*- C++ -*----------------------------------*\
| =========                 |                                                 |
| \\      /  F ield         | OpenFOAM: The Open Source CFD Toolbox           |
|  \\    /   O peration     | Version:  2.0.x                                 |
|   \\  /    A nd           | Web:      www.OpenFOAM.org                      |
|    \\/     M anipulation  |                                                 |
\*---------------------------------------------------------------------------*/

FoamFile
{
    version     2.0;
    format      ascii;
    class       dictionary;
    location    "system";
    object      fvSchemes;
}
// * * * * * * * * * * * * * * * * * * * * * * * * * * * * * * * * * * * * * //

ddtSchemes
{
    default                        backward;
//  default                        CrankNicholson 1.0;
}

gradSchemes
{
    default                        Gauss linear;
    grad(U)                        Gauss linear;
}

divSchemes
{
    default                        Gauss linear;
    div(phi,U)                     Gauss linear;
    div(phi,T)                     Gauss linear;
    div(R)                         Gauss linear;
    div(U)                         Gauss linear;
    div((nuEff*dev(grad(U).T())))  Gauss linear;
    div(B)                         Gauss linear;
    div(phi,B)                     Gauss linear;
}

laplacianSchemes
{
    default                        Gauss linear corrected;
    laplacian(rUA,p)               Gauss linear corrected;
    laplacian((1|A(U)),p)          Gauss linear corrected;
    laplacian(interpolate((1|A(U))),p) Gauss linear corrected;
    laplacian(interpolate((1|A(U))),pd) Gauss linear corrected;
    laplacian(nu,U)                Gauss linear corrected;
    laplacian(nuEff,U)             Gauss linear corrected;
    laplacian(kappaEff,T)          Gauss linear corrected;
    laplacian(DBEff,B)             Gauss linear corrected;
    laplacian(nuSgs,U)             Gauss linear corrected;
}

interpolationSchemes
{
    default                        linear;
}

snGradSchemes
{
    default                        corrected;
}

fluxRequired
{
    default                        no;
    pd                               ;
}

// ************************************************************************* //
