/*--------------------------------*- C++ -*----------------------------------*\
  =========                 |
  \\      /  F ield         | OpenFOAM: The Open Source CFD Toolbox
   \\    /   O peration     | Website:  https://openfoam.org
    \\  /    A nd           | Version:  6
     \\/     M anipulation  |
\*---------------------------------------------------------------------------*/

FoamFile
{
    version         2.0;
    format          ascii;

    root            "";
    case            "";
    instance        "";
    local           "";

    class           dictionary;
    object          ABLProperties;
}

// * * * * * * * * * * * * * * * * * * * * * * * * * * * * * * * * * * * * * //

#include        "../setUp"



// Properties of the background forcing source terms
momentumSourceType       "computed";
temperatureSourceType    "given";

velocityInputType        "speedAndDirection";

// Use the source table in the file listed below.
sourceHeightsMomentum
(
    $windControlHeight
);

sourceTableMomentumX
(
    (    0.0 $windSpeed)
    (90000.0 $windSpeed)
);

sourceTableMomentumY
(
    (    0.0 $windDir)
    (90000.0 $windDir)
);

sourceTableMomentumZ
(
    (    0.0 0.0)
    (90000.0 0.0)
);

sourceHeightsTemperature
(
    $windControlHeight
);

sourceTableTemperature
(
    (    0.0 0.0)
    (90000.0 0.0)
);


// Relaxation factors applied when computing sources given desired
// velocity and temperature.
alphaMomentum      0.7;
alphaTemperature   0.7;


// Properties of the Coriolis force
planetaryRotationPeriod   $EarthPeriod;
latitude                  $latitude;

// ************************************************************************* //
