/*--------------------------------*- C++ -*----------------------------------*\
| =========                 |                                                 |
| \\      /  F ield         | OpenFOAM: The Open Source CFD Toolbox           |
|  \\    /   O peration     | Version:  2.4.x                                 |
|   \\  /    A nd           | Web:      www.OpenFOAM.org                      |
|    \\/     M anipulation  |                                                 |
\*---------------------------------------------------------------------------*/
FoamFile
{
    version     2.0;
    format      ascii;
    class       dictionary;
    location    "system";
    object      controlDict;
}
// * * * * * * * * * * * * * * * * * * * * * * * * * * * * * * * * * * * * * //

  application       XXX;

  libs              ( XXX );

  startFrom         startTime;

  startTime         0.0;

  stopAt            endTime;

  endTime           10.0;

  deltaT            0.5;

  writeControl      adjustableRunTime;

  writeInterval     1.0; 

  purgeWrite        0;

  writeFormat       binary;

  writePrecision    12;

  writeCompression  compressed;

  timeFormat        general;

  timePrecision     12;

  runTimeModifiable yes;

  adjustTimeStep    yes;

  maxCo             0.75;

  maxDeltaT         25.0;

  functions
  {
      planarAverage
      {
          // Type of functionObject
          type                 planarAveraging;

          // Where to load it from
          functionObjectLibs   ("libSOWFAfieldFunctionObjects.so");

          // Function object enabled flag
          enabled              true;

          // When to output the average fields
          outputControl        adjustableTime;
          writeInterval        1;

          // Fields to be averaged
          fields
          (
              U
              T
              UU        // Resolved Reynolds stress tensor
              wUU       // Triple velocity correlations w'u_i'u_i'
              TU        // Velocity temperature correlations T'u_i'
          );
      }
  }

// ************************************************************************* //

