horizontalAxisWindTurbinesALMOpenFAST/horizontalAxisWindTurbinesALMOpenFAST.C

LIB = $(FOAM_USER_LIBBIN)/libuserTurbineModelsOpenFAST
