horizontalAxisWindTurbinesALMOpenFAST/horizontalAxisWindTurbinesALMOpenFAST.C

LIB = $(SOWFA_DIR)/lib/$(WM_OPTIONS)/libuserTurbineModelsOpenFAST
