
Commented out from FAST are:


 Running FAST (v7.00.01a-bjj, 5-Nov-2010).

 Linked with NWTC Subroutine Library (v1.03.00, 05-Nov-2010).

 Heading of the AeroDyn input file: NREL 5.0 MW offshore baseline aerodynamic input properties;

 Heading of the FAST input file: NREL 5.0 MW Baseline Wind Turbine for Use in Offshore Analysis.

 Aerodynamic loads calculated using AeroDyn (v13.00.00a-bjj, 31-Mar-2010)

 Detected user-defined wind file.
 ***** NOTE: User-defined wind employed *****



commented out :

SimStatus

WrOutHdr

WrOutput

in fastinit.f90 fastrun.f90


