/*--------------------------------*- C++ -*----------------------------------*\
| =========                 |                                                 |
| \\      /  F ield         | OpenFOAM: The Open Source CFD Toolbox           |
|  \\    /   O peration     | Version:  2.4.x                                 |
|   \\  /    A nd           | Web:      http://www.OpenFOAM.org               |
|    \\/     M anipulation  |                                                 |
\*---------------------------------------------------------------------------*/
FoamFile
{
    version     2.0;
    format      ascii;
    class       dictionary;
    object      airfoilProperties;
}
// * * * * * * * * * * * * * * * * * * * * * * * * * * * * * * * * * * * * * //
 
airfoilData
(
//   alpha   C_l       C_d
    (  -180.00   0.00000   0.17480)
    (  -170.00   0.23000   0.21160)
    (  -160.00   0.46000   0.31720)
    (  -150.00   0.49400   0.47840)
    (  -140.00   0.51000   0.67430)
    (  -130.00   0.48600   0.87990)
    (  -120.00   0.41500   1.06840)
    (  -110.00   0.30200   1.21480)
    (  -100.00   0.15900   1.29890)
    (   -90.00   0.00000   1.30800)
    (   -80.00  -0.15900   1.29890)
    (   -70.00  -0.30200   1.21480)
    (   -60.00  -0.41500   1.06840)
    (   -50.00  -0.48600   0.87990)
    (   -40.00  -0.51000   0.67430)
    (   -30.00  -0.49400   0.47840)
    (   -21.10  -0.56000   0.30270)
    (   -19.10  -0.67000   0.30690)
    (   -17.10  -0.79000   0.19280)
    (   -15.20  -0.84000   0.08980)
    (   -13.20  -0.70000   0.05530)
    (   -11.10  -0.63000   0.03900)
    (    -9.20  -0.56000   0.02330)
    (    -7.10  -0.64000   0.01310)
    (    -5.10  -0.42500   0.01340)
    (    -3.10  -0.20500   0.01190)
    (    -0.90   0.05500   0.01220)
    (     1.00   0.29600   0.01160)
    (     3.10   0.54000   0.01440)
    (     5.20   0.78900   0.01460)
    (     7.10   1.00400   0.01620)
    (     9.20   1.21000   0.02740)
    (    10.30   1.28300   0.03030)
    (    11.10   1.31800   0.03690)
    (    12.20   1.34300   0.05090)
    (    13.20   1.35200   0.06480)
    (    14.30   1.36100   0.07760)
    (    15.30   1.36700   0.11200)
    (    16.10   1.36500   0.14900)
    (    17.10   1.35300   0.24900)
    (    18.10   1.30300   0.40000)
    (    19.10   1.32200   0.40000)
    (    23.60   1.78700   0.47840)
    (    29.91   2.03900   0.67430)
    (    35.00   1.95516   0.88500)
    (    40.00   1.80544   1.28300)
    (    45.00   1.65572   1.65572)
    (    50.00   1.50600   1.73800)
    (    60.00   1.12900   1.81500)
    (    70.00   0.76000   1.85800)
    (    80.00   0.32300   1.88800)
    (    90.00   0.00000   1.90600)
    (   100.00  -0.15900   1.29890)
    (   110.00  -0.30200   1.21480)
    (   120.00  -0.41500   1.06840)
    (   130.00  -0.48600   0.87990)
    (   140.00  -0.51000   0.67430)
    (   150.00  -0.49400   0.47840)
    (   160.00  -0.46000   0.31720)
    (   170.00  -0.23000   0.21160)
    (   180.00   0.00000   0.17480)
);