/*--------------------------------*- C++ -*----------------------------------*\
| =========                 |                                                 |
| \\      /  F ield         | OpenFOAM: The Open Source CFD Toolbox           |
|  \\    /   O peration     | Version:  2.0.0                                 |
|   \\  /    A nd           | Web:      www.OpenFOAM.org                      |
|    \\/     M anipulation  |                                                 |
\*---------------------------------------------------------------------------*/
FoamFile
{
    version     2.0;
    format      ascii;
    class       dictionary;
    object      changeDictionaryDict;
}
// * * * * * * * * * * * * * * * * * * * * * * * * * * * * * * * * * * * * * //

dictionaryReplacement
{

    // Specify
    // - all fvPatchFields with potential non-uniform values
    // - all fvPatchFields originating from meshing
    // - all fvPatchFields originating from mesh-redistribution

    U
    {
        boundaryField
        {
            top
            {
                type            slip;
            }
            bottom
            {
                type            slip;
            }
            west
            {
                type            timeVaryingMappedFixedValue;
                setAverage      0;
            }
            east 
            { 
                type            inletOutlet;
                inletValue      uniform (0 0 0);
            }
            north 
            {
                type            inletOutlet;
                inletValue      uniform (0 0 0);
            }
            south 
            {
                type            timeVaryingMappedFixedValue;
                setAverage      0;
            }
        }
    }

    pd
    {
        boundaryField
        {
            top 
            {
                type            buoyantPressureMod;
                rho             rhok;
            }
            bottom
            {
                type            buoyantPressureMod;
                rho             rhok;
            }
            west
            {
                type            buoyantPressureMod;
                rho             rhok;
            }
            east
            {
                type            buoyantPressureMod;
                rho             rhok;
            }
            north
            {
                type            buoyantPressureMod;
                rho             rhok;
            }
            south
            {
                type            buoyantPressureMod;
                rho             rhok;
            }
        }
    }

    T
    {
        boundaryField
        {
            top
            {
                type            fixedGradient;
                gradient        uniform 0.003;
            }
            bottom
            {
                type            zeroGradient;
            }
            west
            {
                type            timeVaryingMappedFixedValue;
                setAverage      0;             
            }
            east
            {
                type            zeroGradient;
            }
            north 
            {
                type            zeroGradient;
            }
            south
            {
                type            timeVaryingMappedFixedValue;
                setAverage      0;
            }
        }
    }
}

// ************************************************************************* //
