/*--------------------------------*- C++ -*----------------------------------*\
| =========                 |                                                 |
| \\      /  F ield         | OpenFOAM: The Open Source CFD Toolbox           |
|  \\    /   O peration     | Version:  1.6                                   |
|   \\  /    A nd           | Web:      www.OpenFOAM.org                      |
|    \\/     M anipulation  |                                                 |
\*---------------------------------------------------------------------------*/
FoamFile
{
    version     2.0;
    format      ascii;
    class       dictionary;
    location    "system";
    object      controlDict;
}
// * * * * * * * * * * * * * * * * * * * * * * * * * * * * * * * * * * * * * //

  application       pisoFoamTurbine.ADM;

//  libs              ("libuserfiniteVolume.so" "libuserincompressibleLESModels.so");
  libs              ("libSOWFAfiniteVolume.so" "libSOWFAincompressibleLESModels.so");

  startFrom         startTime;

  startTime         0.0;

  stopAt            endTime;

  endTime           200.0;

startTimeMean      100;
startTimeCorr      200;

  deltaT            0.2;

  writeControl      adjustableRunTime;

  writeInterval     100.0; 

  purgeWrite        0;

  writeFormat       binary;

  writePrecision    12;

  writeCompression  compressed;

  timeFormat        general;

  timePrecision     12;

  runTimeModifiable yes;

  adjustTimeStep    yes;

  maxCo             0.75;

  maxDeltaT         25.0;


// ************************************************************************* //

