/*---------------------------------------------------------------------------*\
| =========                 |                                                 |
| \\      /  F ield         | OpenFOAM: The Open Source CFD Toolbox           |
|  \\    /   O peration     | Version:  2.4.x                                 |
|   \\  /    A nd           | Web:      http://www.openfoam.org               |
|    \\/     M anipulation  |                                                 |
\*---------------------------------------------------------------------------*/

FoamFile
{
    version         2.0;
    format          ascii;

    root            "";
    case            "";
    instance        "";
    local           "";

    class           dictionary;
    object          ABLProperties;
}

// * * * * * * * * * * * * * * * * * * * * * * * * * * * * * * * * * * * * * //

#include        "../setUp"


// Properties of the mesoscale source terms
// ----------------------------------------
// There are two possible types of source terms:
// - The "given" type means that the source values are directly given
//   and the flow field will react accordingly.  
// - The "computed" type means that the mean profiles
//   are given and the source terms that maintain them are computed. 

momentumSource
{
    type        "computed";                         // Type of source to use
    inputType   "component";                        // Specific for momentum: "component" means the x, y and z components are specified,
                                                    // "speedAndDirection" means wind speed, wind direction and vertical component are specified.
    gain        0.0168;                             // Controller gain.
    regOrder    3;                                  // Order of regression polynomial
    alpha       0.2;                                // Weights of proportional and integral action are alpha and (1-alpha), respectively
    timeWindow  3600.0;                             // Time window of exponential time filter in integral action (s).
    weightsTable
    (
        //  z   weight
        (0.0        0.0)
        (1000.0     1.0)
        (4000.0     1.0)
    );

    #include "../forcing/fieldTable"
}

temperatureSource
{
    type        "computed";                         // Type of source to use
    gain        0.0168;                             // Controller gain.
    regOrder    3;                                  // Order of regression polynomial
    alpha       0.2;                                // Weights of proportional and integral action are alpha and (1-alpha), respectively
    timeWindow  3600.0;                             // Time window of exponential time filter in integral action (s).
    weightsTable
    (
        //  z   weight
        (0.0        0.0)
        (1000.0     1.0)
        (4000.0     1.0)
    );

    #include "../forcing/fieldTable"
}


// Properties of the Coriolis force
planetaryRotationPeriod   $EarthPeriod;             // Latitude on the Earth of the site (deg).
latitude                  $latitude;                // Earth's rotation period (hr).


// Pressure handling.
activatePressureRefCell   true;                     // Switch to set the pressure reference cell explicitly in the p_rgh solve.
perturbationPressureType  "rhokSplit";              // Options for defining the background pressure:
                                                    // - noSplit:   do not split out hydrostatic part; pressure is then perturbation pressure.
                                                    // - rho0Split: split out the hydrostatic part; define hydrostatic as rho_0 * g * z.
                                                    // - rhokSplit: split out the hydrostatic part; define hydrostatic as rho_k * g * z.


// Sponge layer parameters.
upperSponge
{
    type             "Rayleigh";                    // Type of sponge layer: "none" (Default), "Rayleigh" or "viscous".
    startLocation    10000.0;                       // Start location of the sponge layer (m).
    width            5000.0;                        // Width of the sponge layer (m).
    Ux               10.0;                          // Sponge layer reference velocity (only for Rayleigh) in x direction (m/s).
    Uy               0.0;                           // Sponge layer reference velocity (only for Rayleigh) in y direction (m/s).
    viscosityMax     0.01;                          // Maximum viscosity, dimensions depend on type of damping:
                                                    // Rayleigh (1/s)
                                                    // viscous  (m^2/s)
    coordIndex       2;                             // Coordinate index: 0, 1 or 2 corresponding to yz, xz or xy slab.
    direction        "stepUp";                      // Shape of damping function: "stepUp" increases smoothly from 0 to 1 in the
                                                    // specified coordinate direction, "stepDown" decreases in the coordinate direction.
}


// Statistics gathering input
statisticsOn              $statisticsOn;
statisticsFrequency       $statisticsFrequency;


// ************************************************************************* //
