
This file was generated by AeroDyn (v13.00.00a-bjj, 31-Mar-2010) on 14-Mar-2012 at 09:48:53.

Inputs read in from the AeroDyn input file:
NREL 5.0 MW offshore baseline aerodynamic input properties; Compatible with AeroDyn v12.58.

SI	Units for input and output         
BEDDOES	Dynamic stall model                 [Beddoes]
NO_CM	Aerodynamic pitching moment model   [NO Pitching Moments calculated]
EQUIL	Inflow model                        [Equilibrium]
NONE	Induction factor model              [NO induction factors calculated]
[Not Used]	Convergence tolerance for induction factor
NONE	Tip-loss model                      [NO tip-loss calculated]
NONE	Hub-loss model                      [NO hub-loss calculated]
"USERWIND.wnd"	  Wind file name
90	Wind reference (hub) height, m
0	Tower shadow centerline velocity deficit
1	Tower shadow half width, m
9999.9	Tower shadow reference point, m
1.225	Air density, kg/m^3
1.46400E-05	Kinematic air viscosity, m^2/sec
2.00000E-02	Time interval for aerodynamic calculations, sec
8	Number of airfoil files used. Files listed below:
"AeroData/Cylinder1.dat"
"AeroData/Cylinder2.dat"
"AeroData/DU40_A17.dat"
"AeroData/DU35_A17.dat"
"AeroData/DU30_A17.dat"
"AeroData/DU25_A17.dat"
"AeroData/DU21_A17.dat"
"AeroData/NACA64_A17.dat"
62	Number of blade elements per blade

     Element     RELM       Twist       DR        Chord      NFoil     Print?    Tip-loss   Hub-loss 
       (-)        (m)       (deg)       (m)        (m)        (-)     (Yes/No)   constant   constant 
   ---------- ---------- ---------- ---------- ---------- ---------- ---------- ---------- ----------
            1    2.00000   13.30800    1.00000    3.54200          1         No   45.75000    0.50000
            2    3.00000   13.30800    1.00000    3.55722          1         No   30.00000    1.50000
            3    4.00000   13.30800    1.00000    3.67136          1         No   22.12500    2.50000
            4    5.00000   13.30800    1.00000    3.78551          1         No   17.40000    3.50000
            5    6.00000   13.30800    1.00000    3.89981          1         No   14.25000    4.50000
            6    7.00000   13.30800    1.00000    4.01432          1         No   12.00000    5.50000
            7    8.00000   13.30800    1.00000    4.12883          1         No   10.31250    6.50000
            8    9.00000   13.30800    1.00000    4.24310          2         No    9.00000    7.50000
            9   10.00000   13.30800    1.00000    4.35725          2         No    7.95000    8.50000
           10   11.00000   13.30800    1.00000    4.47139          2         No    7.09091    9.50000
           11   12.00000   13.19654    1.00000    4.56279          3         No    6.37500   10.50000
           12   13.00000   12.75068    1.00000    4.58596          3         No    5.76923   11.50000
           13   14.00000   12.30483    1.00000    4.60913          3         No    5.25000   12.50000
           14   15.00000   11.85898    1.00000    4.63231          3         No    4.80000   13.50000
           15   16.00000   11.43178    1.00000    4.64490          4         No    4.40625   14.50000
           16   17.00000   11.11032    1.00000    4.59759          4         No    4.05882   15.50000
           17   18.00000   10.78885    1.00000    4.55027          4         No    3.75000   16.50000
           18   19.00000   10.46739    1.00000    4.50295          4         No    3.47368   17.50000
           19   20.00000   10.14796    1.00000    4.45545          4         No    3.22500   18.50000
           20   21.00000    9.86723    1.00000    4.40448          4         No    3.00000   19.50000
           21   22.00000    9.58650    1.00000    4.35350          4         No    2.79545   20.50000
           22   23.00000    9.30577    1.00000    4.30252          4         No    2.60870   21.50000
           23   24.00000    9.02504    1.00000    4.25155          4         No    2.43750   22.50000
           24   25.00000    8.72924    1.00000    4.19293          5         No    2.28000   23.50000
           25   26.00000    8.43266    1.00000    4.13390          5         No    2.13462   24.50000
           26   27.00000    8.13607    1.00000    4.07488          5         No    2.00000   25.50000
           27   28.00000    7.83949    1.00000    4.01585          5         No    1.87500   26.50000
           28   29.00000    7.53565    1.00000    3.95331          6         No    1.75862   27.50000
           29   30.00000    7.23052    1.00000    3.89013          6         No    1.65000   28.50000
           30   31.00000    6.92540    1.00000    3.82696          6         No    1.54839   29.50000
           31   32.00000    6.62028    1.00000    3.76379          6         No    1.45313   30.50000
           32   33.00000    6.32760    1.00000    3.70300          6         No    1.36364   31.50000
           33   34.00000    6.03906    1.00000    3.64300          6         No    1.27941   32.50000
           34   35.00000    5.75052    1.00000    3.58300          6         No    1.20000   33.50000
           35   36.00000    5.46199    1.00000    3.52300          6         No    1.12500   34.50000
           36   37.00000    5.17504    1.00000    3.46300          7         No    1.05405   35.50000
           37   38.00000    4.88894    1.00000    3.40300          7         No    0.98684   36.50000
           38   39.00000    4.60284    1.00000    3.34300          7         No    0.92308   37.50000
           39   40.00000    4.31674    1.00000    3.28300          7         No    0.86250   38.50000
           40   41.00000    4.04540    1.00000    3.22300          7         No    0.80488   39.50000
           41   42.00000    3.78613    1.00000    3.16300          7         No    0.75000   40.50000
           42   43.00000    3.52687    1.00000    3.10300          7         No    0.69767   41.50000
           43   44.00000    3.26760    1.00000    3.04300          7         No    0.64773   42.50000
           44   45.00000    3.03654    1.00000    2.98300          8         No    0.60000   43.50000
           45   46.00000    2.83995    1.00000    2.92300          8         No    0.55435   44.50000
           46   47.00000    2.64337    1.00000    2.86300          8         No    0.51064   45.50000
           47   48.00000    2.44678    1.00000    2.80300          8         No    0.46875   46.50000
           48   49.00000    2.25130    1.00000    2.74300          8         No    0.42857   47.50000
           49   50.00000    2.05789    1.00000    2.68300          8         No    0.39000   48.50000
           50   51.00000    1.86448    1.00000    2.62300          8         No    0.35294   49.50000
           51   52.00000    1.67106    1.00000    2.56300          8         No    0.31731   50.50000
           52   53.00000    1.47749    1.00000    2.50300          8         No    0.28302   51.50000
           53   54.00000    1.28344    1.00000    2.44300          8         No    0.25000   52.50000
           54   55.00000    1.08939    1.00000    2.38300          8         No    0.21818   53.50000
           55   56.00000    0.89535    1.00000    2.32300          8         No    0.18750   54.50000
           56   57.00000    0.71270    1.00000    2.24379          8         No    0.15789   55.50000
           57   58.00000    0.53233    1.00000    2.16074          8         No    0.12931   56.50000
           58   59.00000    0.36034    1.00000    2.06160          8         No    0.10169   57.50000
           59   60.00000    0.26375    1.00000    1.81757          8         No    0.07500   58.50000
           60   61.00000    0.16717    1.00000    1.57354          8         No    0.04918   59.50000
           61   62.00000    0.07756    1.00000    1.03827          8         No    0.02419   60.50000
           62   62.75000    0.01939    0.50000    0.25957          8         No    0.00598   61.25000


 Rotor radius     =  63.000 m
 Hub radius       =   1.500 m
 Number of blades =   3

  BEDDOES DYNAMIC STALL PARAMETERS:

   CN SLOPE           0.0000     0.0000     7.4888     7.1838     7.3326     6.4462     6.2047     6.0031
   STALL CN (UPPER)   0.0000     0.0000     1.3519     1.6717     1.4490     1.4336     1.4144     1.4073
   STALL CN (LOWER)   0.0000     0.0000    -0.3226    -0.3075    -0.6138    -0.6873    -0.5324    -0.7945
   ZERO LIFT AOA      0.0000     0.0000    -1.3430    -1.8330    -2.3220    -4.2422    -5.0609    -4.4320
   MIN DRAG AOA       0.0000     0.0000     0.0000     0.0000     0.0000     0.0000    -1.5000    -1.0000
   MIN DRAG COEFF     0.5000     0.3500     0.0113     0.0094     0.0087     0.0065     0.0057     0.0052


     VORTEX TRANSIT TIME FROM LE TO TE    11.000000    
     PRESSURE TIME CONSTANT               1.7000000    
     VORTEX TIME CONSTANT                 6.0000000    
     F-PARAMETER TIME CONSTANT            3.0000000    
