/*--------------------------------*- C++ -*----------------------------------*\
| =========                 |                                                 |
| \\      /  F ield         | OpenFOAM: The Open Source CFD Toolbox           |
|  \\    /   O peration     | Version:  2.0.x                                 |
|   \\  /    A nd           | Web:      www.OpenFOAM.org                      |
|    \\/     M anipulation  |                                                 |
\*---------------------------------------------------------------------------*/
FoamFile
{
    version     2.0;
    format      ascii;
    class       dictionary;
    location    "system";
    object      controlDict;
}
// * * * * * * * * * * * * * * * * * * * * * * * * * * * * * * * * * * * * * //

  application       windPlantPisoSolver;

  libs              ("libuserfiniteVolume.so");

  startFrom         startTime;

  startTime         12000.0;

  stopAt            endTime;

  endTime           12750.0;

  deltaT            0.015;

  writeControl      adjustableRunTime;

  writeInterval     25.0; 

  purgeWrite        3;

  writeFormat       ascii;
//writeFormat       binary;

  writePrecision    12;

  writeCompression  uncompressed;

  timeFormat        general;

  timePrecision     12;

  runTimeModifiable yes;

  adjustTimeStep    no;

  maxCo             0.75;

  maxDeltaT         25.0;

  functions
  {
      sliceData
      {
          type                 surfaces;
          functionObjectLibs   ("libsampling.so");
          enabled              true;
          interpolationScheme  isThisNeeded;
          outputControl        outputTime;
          outputInterval       25.0;
          surfaceFormat        vtk;
          fields
          (
              U
              p
          );
          surfaces
          (
              slice_1
              {
                  type         plane;
                  basePoint    (1500.0 1500.0 90.0);
                  normalVector (0 0 1);
                  interpolate  false;
                  triangulate  false;
              }
              slice_2
              {
                  type         plane;
                  basePoint    (1500.0 1500.0 90.0);
                  normalVector (0.70710678 -0.70710678 0);
                  interpolate  false;
                  triangulate  false;
              }
              slice_3
              {
                  type         plane;
                  basePoint    (1600.0 1600.0 90.0);
                  normalVector (0.70710678 0.70710678 0);
                  interpolate  false;
                  triangulate  false;
              }
          );
      }
  }


// ************************************************************************* //
