/*--------------------------------*- C++ -*----------------------------------*\
  =========                 |
  \\      /  F ield         | OpenFOAM: The Open Source CFD Toolbox
   \\    /   O peration     | Website:  https://openfoam.org
    \\  /    A nd           | Version:  6
     \\/     M anipulation  |
\*---------------------------------------------------------------------------*/

FoamFile
{
    version     2.0;
    format      ascii;
    class       dictionary;
    location    "system";
    object      topoSetDict.local.2;
}

// * * * * * * * * * * * * * * * * * * * * * * * * * * * * * * * * * * * * * //
 
actions
(
    {
        name         local;
        type         cellSet;
        action       new;
        source       rotatedBoxToCell;
        sourceInfo
        {
            origin (  1604.57 1179.87 0);
            i      (  0 532.32 0);
            j      (  -128.52 0 0);
            k      (  0 0 96.8911);
        }
    }
 
);
 
// ************************************************************************* //
